MODEL 1
REMARK VINA RESULT:      -9.1      0.000      0.000
REMARK  3 active torsions:
REMARK  status: ('A' for Active; 'I' for Inactive)
REMARK       I    between atoms: C2_2  and  O3_16 
REMARK       I    between atoms: C12_13  and  O4_19 
REMARK    1  A    between atoms: O3_16  and  C15_22 
REMARK    2  A    between atoms: C15_22  and  C16_24 
REMARK       I    between atoms: O4_19  and  C19_20 
REMARK    3  A    between atoms: C19_20  and  C20_30 
ROOT
ATOM      1  C1  non d ame      15.782  26.972  47.359  0.00  0.00     0.017 C 
ATOM      2  C2  non d ame      16.110  25.651  46.966  0.00  0.00     0.004 C 
ATOM      3  C3  non d ame      17.452  25.231  46.993  0.00  0.00     0.035 C 
ATOM      4  C4  non d ame      18.452  26.063  47.518  0.00  0.00     0.027 C 
ATOM      5  C5  non d ame      18.146  27.338  48.058  0.00  0.00    -0.013 A 
ATOM      6  C6  non d ame      16.797  27.779  47.934  0.00  0.00     0.019 A 
ATOM      7  C7  non d ame      19.096  28.203  48.690  0.00  0.00     0.003 A 
ATOM      8  C8  non d ame      18.684  29.497  49.131  0.00  0.00     0.009 A 
ATOM      9  C9  non d ame      17.337  29.880  48.962  0.00  0.00     0.107 A 
ATOM     10  O1  non d ame      16.465  29.019  48.385  0.00  0.00    -0.147 OA
ATOM     11  C10 non d ame      20.452  27.842  48.926  0.00  0.00     0.038 A 
ATOM     12  C11 non d ame      21.392  28.730  49.502  0.00  0.00     0.003 A 
ATOM     13  C12 non d ame      20.972  30.037  49.837  0.00  0.00     0.012 A 
ATOM     14  C13 non d ame      19.615  30.387  49.710  0.00  0.00     0.093 A 
ATOM     15  O2  non d ame      16.880  30.991  49.318  0.00  0.00    -0.254 OA
ATOM     16  O3  non d ame      15.165  24.750  46.541  0.00  0.00    -0.266 OA
ATOM     17  C14 non d ame      14.403  27.502  47.176  0.00  0.00     0.107 C 
ATOM     18  C18 non d ame      22.795  28.288  49.716  0.00  0.00     0.098 C 
ATOM     19  O4  non d ame      21.845  30.997  50.286  0.00  0.00    -0.266 OA
ATOM     20  C19 non d ame      22.541  31.720  49.236  0.00  0.00     0.189 C 
ATOM     21  C21 non d ame      21.615  32.606  48.360  0.00  0.00     0.047 C 
ENDROOT
BRANCH  16  22
ATOM     22  C15 non d ame      14.510  23.997  47.596  0.00  0.00     0.189 C 
ATOM     23  C17 non d ame      15.288  23.971  48.942  0.00  0.00     0.047 C 
BRANCH  22  24
ATOM     24  C16 non d ame      14.327  22.616  47.106  0.00  0.00     0.060 A 
ATOM     25  N1  non d ame      13.692  21.623  47.743  0.00  0.00    -0.105 NA
ATOM     26  N2  non d ame      13.782  20.578  46.984  0.00  0.00    -0.082 NA
ATOM     27  N3  non d ame      14.439  20.860  45.903  0.00  0.00    -0.166 NA
ATOM     28  N4  non d ame      14.780  22.103  45.958  0.00  0.00     0.064 N 
ATOM     29  H12 non d ame      15.303  22.581  45.240  0.00  0.00     0.179 HD
ENDBRANCH  22  24
ENDBRANCH  16  22
BRANCH  20  30
ATOM     30  C20 non d ame      23.585  32.556  49.863  0.00  0.00     0.060 A 
ATOM     31  N5  non d ame      24.808  32.779  49.376  0.00  0.00     0.064 N 
ATOM     32  N6  non d ame      25.432  33.569  50.181  0.00  0.00    -0.166 NA
ATOM     33  H20 non d ame      25.203  32.406  48.524  0.00  0.00     0.179 HD
ATOM     34  N7  non d ame      24.633  33.849  51.164  0.00  0.00    -0.082 NA
ATOM     35  N8  non d ame      23.497  33.249  51.006  0.00  0.00    -0.105 NA
ENDBRANCH  20  30
TORSDOF 6
ENDMDL
MODEL 2
REMARK VINA RESULT:      -8.6      2.379     10.327
REMARK  3 active torsions:
REMARK  status: ('A' for Active; 'I' for Inactive)
REMARK       I    between atoms: C2_2  and  O3_16 
REMARK       I    between atoms: C12_13  and  O4_19 
REMARK    1  A    between atoms: O3_16  and  C15_22 
REMARK    2  A    between atoms: C15_22  and  C16_24 
REMARK       I    between atoms: O4_19  and  C19_20 
REMARK    3  A    between atoms: C19_20  and  C20_30 
ROOT
ATOM      1  C1  non d ame      21.522  29.773  50.064  0.00  0.00     0.017 C 
ATOM      2  C2  non d ame      22.602  28.877  49.868  0.00  0.00     0.004 C 
ATOM      3  C3  non d ame      22.359  27.603  49.327  0.00  0.00     0.035 C 
ATOM      4  C4  non d ame      21.081  27.253  48.867  0.00  0.00     0.027 C 
ATOM      5  C5  non d ame      20.002  28.172  48.908  0.00  0.00    -0.013 A 
ATOM      6  C6  non d ame      20.249  29.422  49.546  0.00  0.00     0.019 A 
ATOM      7  C7  non d ame      18.696  27.919  48.377  0.00  0.00     0.003 A 
ATOM      8  C8  non d ame      17.668  28.896  48.544  0.00  0.00     0.009 A 
ATOM      9  C9  non d ame      17.974  30.105  49.201  0.00  0.00     0.107 A 
ATOM     10  O1  non d ame      19.230  30.316  49.663  0.00  0.00    -0.147 OA
ATOM     11  C10 non d ame      18.353  26.736  47.665  0.00  0.00     0.038 A 
ATOM     12  C11 non d ame      17.044  26.477  47.194  0.00  0.00     0.003 A 
ATOM     13  C12 non d ame      16.029  27.423  47.463  0.00  0.00     0.012 A 
ATOM     14  C13 non d ame      16.359  28.646  48.074  0.00  0.00     0.093 A 
ATOM     15  O2  non d ame      17.142  31.022  49.393  0.00  0.00    -0.254 OA
ATOM     16  O3  non d ame      23.896  29.196  50.199  0.00  0.00    -0.266 OA
ATOM     17  C14 non d ame      21.717  31.055  50.793  0.00  0.00     0.107 C 
ATOM     18  C18 non d ame      16.755  25.217  46.461  0.00  0.00     0.098 C 
ATOM     19  O4  non d ame      14.711  27.195  47.151  0.00  0.00    -0.266 OA
ATOM     20  C19 non d ame      13.974  26.439  48.148  0.00  0.00     0.189 C 
ATOM     21  C21 non d ame      13.792  27.187  49.497  0.00  0.00     0.047 C 
ENDROOT
BRANCH  16  22
ATOM     22  C15 non d ame      24.639  29.909  49.175  0.00  0.00     0.189 C 
ATOM     23  C17 non d ame      25.627  29.021  48.366  0.00  0.00     0.047 C 
BRANCH  22  24
ATOM     24  C16 non d ame      25.385  30.994  49.845  0.00  0.00     0.060 A 
ATOM     25  N1  non d ame      25.538  31.157  51.166  0.00  0.00    -0.105 NA
ATOM     26  N2  non d ame      26.231  32.238  51.329  0.00  0.00    -0.082 NA
ATOM     27  N3  non d ame      26.524  32.764  50.180  0.00  0.00    -0.166 NA
ATOM     28  N4  non d ame      26.016  32.017  49.260  0.00  0.00     0.064 N 
ATOM     29  H12 non d ame      26.096  32.199  48.270  0.00  0.00     0.179 HD
ENDBRANCH  22  24
ENDBRANCH  16  22
BRANCH  20  30
ATOM     30  C20 non d ame      12.653  26.095  47.586  0.00  0.00     0.060 A 
ATOM     31  N5  non d ame      11.477  26.233  48.205  0.00  0.00     0.064 N 
ATOM     32  N6  non d ame      10.545  25.849  47.403  0.00  0.00    -0.166 NA
ATOM     33  H20 non d ame      11.318  26.577  49.141  0.00  0.00     0.179 HD
ATOM     34  N7  non d ame      11.102  25.471  46.295  0.00  0.00    -0.082 NA
ATOM     35  N8  non d ame      12.387  25.606  46.367  0.00  0.00    -0.105 NA
ENDBRANCH  20  30
TORSDOF 6
ENDMDL
MODEL 3
REMARK VINA RESULT:      -8.6      3.065      4.354
REMARK  3 active torsions:
REMARK  status: ('A' for Active; 'I' for Inactive)
REMARK       I    between atoms: C2_2  and  O3_16 
REMARK       I    between atoms: C12_13  and  O4_19 
REMARK    1  A    between atoms: O3_16  and  C15_22 
REMARK    2  A    between atoms: C15_22  and  C16_24 
REMARK       I    between atoms: O4_19  and  C19_20 
REMARK    3  A    between atoms: C19_20  and  C20_30 
ROOT
ATOM      1  C1  non d ame      17.766  26.821  49.415  0.00  0.00     0.017 C 
ATOM      2  C2  non d ame      16.714  27.599  48.871  0.00  0.00     0.004 C 
ATOM      3  C3  non d ame      16.892  28.982  48.695  0.00  0.00     0.035 C 
ATOM      4  C4  non d ame      18.137  29.580  48.939  0.00  0.00     0.027 C 
ATOM      5  C5  non d ame      19.259  28.815  49.346  0.00  0.00    -0.013 A 
ATOM      6  C6  non d ame      19.031  27.433  49.607  0.00  0.00     0.019 A 
ATOM      7  C7  non d ame      20.580  29.338  49.526  0.00  0.00     0.003 A 
ATOM      8  C8  non d ame      21.615  28.482  50.011  0.00  0.00     0.009 A 
ATOM      9  C9  non d ame      21.319  27.128  50.267  0.00  0.00     0.107 A 
ATOM     10  O1  non d ame      20.063  26.667  50.055  0.00  0.00    -0.147 OA
ATOM     11  C10 non d ame      20.938  30.684  49.235  0.00  0.00     0.038 A 
ATOM     12  C11 non d ame      22.234  31.200  49.472  0.00  0.00     0.003 A 
ATOM     13  C12 non d ame      23.208  30.350  50.042  0.00  0.00     0.012 A 
ATOM     14  C13 non d ame      22.913  28.990  50.245  0.00  0.00     0.093 A 
ATOM     15  O2  non d ame      22.159  26.301  50.690  0.00  0.00    -0.254 OA
ATOM     16  O3  non d ame      15.504  27.058  48.511  0.00  0.00    -0.266 OA
ATOM     17  C14 non d ame      17.550  25.393  49.776  0.00  0.00     0.107 C 
ATOM     18  C18 non d ame      22.538  32.619  49.147  0.00  0.00     0.098 C 
ATOM     19  O4  non d ame      24.449  30.802  50.416  0.00  0.00    -0.266 OA
ATOM     20  C19 non d ame      24.504  31.398  51.739  0.00  0.00     0.189 C 
ATOM     21  C21 non d ame      24.238  30.394  52.895  0.00  0.00     0.047 C 
ENDROOT
BRANCH  16  22
ATOM     22  C15 non d ame      15.447  26.508  47.168  0.00  0.00     0.189 C 
ATOM     23  C17 non d ame      16.837  26.210  46.538  0.00  0.00     0.047 C 
BRANCH  22  24
ATOM     24  C16 non d ame      14.721  27.479  46.324  0.00  0.00     0.060 A 
ATOM     25  N1  non d ame      14.752  27.550  44.986  0.00  0.00    -0.105 NA
ATOM     26  N2  non d ame      14.004  28.552  44.650  0.00  0.00    -0.082 NA
ATOM     27  N3  non d ame      13.501  29.114  45.705  0.00  0.00    -0.166 NA
ATOM     28  N4  non d ame      13.928  28.472  46.739  0.00  0.00     0.064 N 
ATOM     29  H12 non d ame      13.687  28.704  47.691  0.00  0.00     0.179 HD
ENDBRANCH  22  24
ENDBRANCH  16  22
BRANCH  20  30
ATOM     30  C20 non d ame      25.832  32.019  51.914  0.00  0.00     0.060 A 
ATOM     31  N5  non d ame      26.386  32.926  51.104  0.00  0.00     0.064 N 
ATOM     32  N6  non d ame      27.538  33.251  51.581  0.00  0.00    -0.166 NA
ATOM     33  H20 non d ame      25.992  33.309  50.257  0.00  0.00     0.179 HD
ATOM     34  N7  non d ame      27.726  32.572  52.670  0.00  0.00    -0.082 NA
ATOM     35  N8  non d ame      26.707  31.809  52.907  0.00  0.00    -0.105 NA
ENDBRANCH  20  30
TORSDOF 6
ENDMDL
MODEL 4
REMARK VINA RESULT:      -8.2      3.802     10.047
REMARK  3 active torsions:
REMARK  status: ('A' for Active; 'I' for Inactive)
REMARK       I    between atoms: C2_2  and  O3_16 
REMARK       I    between atoms: C12_13  and  O4_19 
REMARK    1  A    between atoms: O3_16  and  C15_22 
REMARK    2  A    between atoms: C15_22  and  C16_24 
REMARK       I    between atoms: O4_19  and  C19_20 
REMARK    3  A    between atoms: C19_20  and  C20_30 
ROOT
ATOM      1  C1  non d ame      22.117  28.513  50.329  0.00  0.00     0.017 C 
ATOM      2  C2  non d ame      22.837  29.729  50.220  0.00  0.00     0.004 C 
ATOM      3  C3  non d ame      22.216  30.856  49.653  0.00  0.00     0.035 C 
ATOM      4  C4  non d ame      20.857  30.825  49.306  0.00  0.00     0.027 C 
ATOM      5  C5  non d ame      20.060  29.675  49.534  0.00  0.00    -0.013 A 
ATOM      6  C6  non d ame      20.732  28.517  50.021  0.00  0.00     0.019 A 
ATOM      7  C7  non d ame      18.651  29.599  49.291  0.00  0.00     0.003 A 
ATOM      8  C8  non d ame      17.969  28.360  49.490  0.00  0.00     0.009 A 
ATOM      9  C9  non d ame      18.697  27.246  49.957  0.00  0.00     0.107 A 
ATOM     10  O1  non d ame      20.023  27.370  50.202  0.00  0.00    -0.147 OA
ATOM     11  C10 non d ame      17.866  30.707  48.867  0.00  0.00     0.038 A 
ATOM     12  C11 non d ame      16.485  30.602  48.577  0.00  0.00     0.003 A 
ATOM     13  C12 non d ame      15.863  29.338  48.692  0.00  0.00     0.012 A 
ATOM     14  C13 non d ame      16.589  28.248  49.207  0.00  0.00     0.093 A 
ATOM     15  O2  non d ame      18.187  26.121  50.164  0.00  0.00    -0.254 OA
ATOM     16  O3  non d ame      24.138  29.857  50.637  0.00  0.00    -0.266 OA
ATOM     17  C14 non d ame      22.796  27.261  50.759  0.00  0.00     0.107 C 
ATOM     18  C18 non d ame      15.727  31.801  48.133  0.00  0.00     0.098 C 
ATOM     19  O4  non d ame      14.561  29.123  48.314  0.00  0.00    -0.266 OA
ATOM     20  C19 non d ame      14.378  28.846  46.901  0.00  0.00     0.189 C 
ATOM     21  C21 non d ame      15.005  27.503  46.435  0.00  0.00     0.047 C 
ENDROOT
BRANCH  16  22
ATOM     22  C15 non d ame      24.308  30.183  52.042  0.00  0.00     0.189 C 
ATOM     23  C17 non d ame      24.701  31.662  52.314  0.00  0.00     0.047 C 
BRANCH  22  24
ATOM     24  C16 non d ame      25.353  29.288  52.580  0.00  0.00     0.060 A 
ATOM     25  N1  non d ame      25.252  28.510  53.667  0.00  0.00    -0.105 NA
ATOM     26  N2  non d ame      26.393  27.913  53.803  0.00  0.00    -0.082 NA
ATOM     27  N3  non d ame      27.206  28.272  52.859  0.00  0.00    -0.166 NA
ATOM     28  N4  non d ame      26.588  29.113  52.101  0.00  0.00     0.064 N 
ATOM     29  H12 non d ame      26.995  29.551  51.287  0.00  0.00     0.179 HD
ENDBRANCH  22  24
ENDBRANCH  16  22
BRANCH  20  30
ATOM     30  C20 non d ame      12.930  28.847  46.611  0.00  0.00     0.060 A 
ATOM     31  N5  non d ame      12.312  28.093  45.699  0.00  0.00     0.064 N 
ATOM     32  N6  non d ame      11.050  28.350  45.741  0.00  0.00    -0.166 NA
ATOM     33  H20 non d ame      12.737  27.426  45.070  0.00  0.00     0.179 HD
ATOM     34  N7  non d ame      10.856  29.248  46.656  0.00  0.00    -0.082 NA
ATOM     35  N8  non d ame      11.979  29.578  47.210  0.00  0.00    -0.105 NA
ENDBRANCH  20  30
TORSDOF 6
ENDMDL
MODEL 5
REMARK VINA RESULT:      -8.2      2.560     10.986
REMARK  3 active torsions:
REMARK  status: ('A' for Active; 'I' for Inactive)
REMARK       I    between atoms: C2_2  and  O3_16 
REMARK       I    between atoms: C12_13  and  O4_19 
REMARK    1  A    between atoms: O3_16  and  C15_22 
REMARK    2  A    between atoms: C15_22  and  C16_24 
REMARK       I    between atoms: O4_19  and  C19_20 
REMARK    3  A    between atoms: C19_20  and  C20_30 
ROOT
ATOM      1  C1  non d ame      23.873  30.419  49.917  0.00  0.00     0.017 C 
ATOM      2  C2  non d ame      23.940  31.825  49.763  0.00  0.00     0.004 C 
ATOM      3  C3  non d ame      22.802  32.534  49.342  0.00  0.00     0.035 C 
ATOM      4  C4  non d ame      21.569  31.882  49.189  0.00  0.00     0.027 C 
ATOM      5  C5  non d ame      21.421  30.501  49.474  0.00  0.00    -0.013 A 
ATOM      6  C6  non d ame      22.607  29.786  49.808  0.00  0.00     0.019 A 
ATOM      7  C7  non d ame      20.180  29.788  49.429  0.00  0.00     0.003 A 
ATOM      8  C8  non d ame      20.169  28.380  49.665  0.00  0.00     0.009 A 
ATOM      9  C9  non d ame      21.381  27.729  49.973  0.00  0.00     0.107 A 
ATOM     10  O1  non d ame      22.529  28.447  50.035  0.00  0.00    -0.147 OA
ATOM     11  C10 non d ame      18.926  30.410  49.171  0.00  0.00     0.038 A 
ATOM     12  C11 non d ame      17.716  29.682  49.074  0.00  0.00     0.003 A 
ATOM     13  C12 non d ame      17.758  28.277  49.218  0.00  0.00     0.012 A 
ATOM     14  C13 non d ame      18.964  27.648  49.574  0.00  0.00     0.093 A 
ATOM     15  O2  non d ame      21.472  26.500  50.198  0.00  0.00    -0.254 OA
ATOM     16  O3  non d ame      25.089  32.540  49.998  0.00  0.00    -0.266 OA
ATOM     17  C14 non d ame      25.099  29.621  50.189  0.00  0.00     0.107 C 
ATOM     18  C18 non d ame      16.442  30.396  48.797  0.00  0.00     0.098 C 
ATOM     19  O4  non d ame      16.653  27.486  49.018  0.00  0.00    -0.266 OA
ATOM     20  C19 non d ame      16.411  27.123  47.633  0.00  0.00     0.189 C 
ATOM     21  C21 non d ame      17.501  26.200  47.023  0.00  0.00     0.047 C 
ENDROOT
BRANCH  16  22
ATOM     22  C15 non d ame      25.297  32.940  51.379  0.00  0.00     0.189 C 
ATOM     23  C17 non d ame      25.014  34.443  51.659  0.00  0.00     0.047 C 
BRANCH  22  24
ATOM     24  C16 non d ame      26.699  32.630  51.723  0.00  0.00     0.060 A 
ATOM     25  N1  non d ame      27.732  32.569  50.872  0.00  0.00    -0.105 NA
ATOM     26  N2  non d ame      28.771  32.242  51.572  0.00  0.00    -0.082 NA
ATOM     27  N3  non d ame      28.448  32.097  52.819  0.00  0.00    -0.166 NA
ATOM     28  N4  non d ame      27.184  32.329  52.931  0.00  0.00     0.064 N 
ATOM     29  H12 non d ame      26.673  32.285  53.801  0.00  0.00     0.179 HD
ENDBRANCH  22  24
ENDBRANCH  16  22
BRANCH  20  30
ATOM     30  C20 non d ame      15.093  26.460  47.551  0.00  0.00     0.060 A 
ATOM     31  N5  non d ame      14.532  25.966  46.445  0.00  0.00     0.064 N 
ATOM     32  N6  non d ame      13.395  25.449  46.759  0.00  0.00    -0.166 NA
ATOM     33  H20 non d ame      14.912  25.981  45.509  0.00  0.00     0.179 HD
ATOM     34  N7  non d ame      13.223  25.605  48.035  0.00  0.00    -0.082 NA
ATOM     35  N8  non d ame      14.238  26.219  48.554  0.00  0.00    -0.105 NA
ENDBRANCH  20  30
TORSDOF 6
ENDMDL
MODEL 6
REMARK VINA RESULT:      -8.0      6.850      9.710
REMARK  3 active torsions:
REMARK  status: ('A' for Active; 'I' for Inactive)
REMARK       I    between atoms: C2_2  and  O3_16 
REMARK       I    between atoms: C12_13  and  O4_19 
REMARK    1  A    between atoms: O3_16  and  C15_22 
REMARK    2  A    between atoms: C15_22  and  C16_24 
REMARK       I    between atoms: O4_19  and  C19_20 
REMARK    3  A    between atoms: C19_20  and  C20_30 
ROOT
ATOM      1  C1  non d ame      18.512  27.235  50.417  0.00  0.00     0.017 C 
ATOM      2  C2  non d ame      18.048  26.976  49.104  0.00  0.00     0.004 C 
ATOM      3  C3  non d ame      17.901  25.648  48.668  0.00  0.00     0.035 C 
ATOM      4  C4  non d ame      18.092  24.578  49.555  0.00  0.00     0.027 C 
ATOM      5  C5  non d ame      18.415  24.796  50.918  0.00  0.00    -0.013 A 
ATOM      6  C6  non d ame      18.650  26.144  51.314  0.00  0.00     0.019 A 
ATOM      7  C7  non d ame      18.537  23.761  51.901  0.00  0.00     0.003 A 
ATOM      8  C8  non d ame      18.940  24.097  53.229  0.00  0.00     0.009 A 
ATOM      9  C9  non d ame      19.175  25.450  53.551  0.00  0.00     0.107 A 
ATOM     10  O1  non d ame      19.019  26.400  52.598  0.00  0.00    -0.147 OA
ATOM     11  C10 non d ame      18.264  22.390  51.637  0.00  0.00     0.038 A 
ATOM     12  C11 non d ame      18.443  21.373  52.604  0.00  0.00     0.003 A 
ATOM     13  C12 non d ame      18.935  21.730  53.879  0.00  0.00     0.012 A 
ATOM     14  C13 non d ame      19.117  23.088  54.201  0.00  0.00     0.093 A 
ATOM     15  O2  non d ame      19.528  25.843  54.686  0.00  0.00    -0.254 OA
ATOM     16  O3  non d ame      17.741  27.979  48.218  0.00  0.00    -0.266 OA
ATOM     17  C14 non d ame      18.845  28.619  50.849  0.00  0.00     0.107 C 
ATOM     18  C18 non d ame      18.141  19.959  52.258  0.00  0.00     0.098 C 
ATOM     19  O4  non d ame      19.253  20.795  54.833  0.00  0.00    -0.266 OA
ATOM     20  C19 non d ame      20.586  20.234  54.711  0.00  0.00     0.189 C 
ATOM     21  C21 non d ame      21.727  21.258  54.968  0.00  0.00     0.047 C 
ENDROOT
BRANCH  16  22
ATOM     22  C15 non d ame      16.388  28.499  48.316  0.00  0.00     0.189 C 
ATOM     23  C17 non d ame      15.380  27.853  47.323  0.00  0.00     0.047 C 
BRANCH  22  24
ATOM     24  C16 non d ame      16.455  29.954  48.073  0.00  0.00     0.060 A 
ATOM     25  N1  non d ame      15.682  30.657  47.235  0.00  0.00    -0.105 NA
ATOM     26  N2  non d ame      16.084  31.886  47.302  0.00  0.00    -0.082 NA
ATOM     27  N3  non d ame      17.068  31.994  48.140  0.00  0.00    -0.166 NA
ATOM     28  N4  non d ame      17.310  30.823  48.622  0.00  0.00     0.064 N 
ATOM     29  H12 non d ame      18.031  30.625  49.300  0.00  0.00     0.179 HD
ENDBRANCH  22  24
ENDBRANCH  16  22
BRANCH  20  30
ATOM     30  C20 non d ame      20.705  19.108  55.659  0.00  0.00     0.060 A 
ATOM     31  N5  non d ame      19.764  18.194  55.912  0.00  0.00     0.064 N 
ATOM     32  N6  non d ame      20.227  17.359  56.777  0.00  0.00    -0.166 NA
ATOM     33  H20 non d ame      18.840  18.142  55.508  0.00  0.00     0.179 HD
ATOM     34  N7  non d ame      21.435  17.723  57.078  0.00  0.00    -0.082 NA
ATOM     35  N8  non d ame      21.762  18.787  56.417  0.00  0.00    -0.105 NA
ENDBRANCH  20  30
TORSDOF 6
ENDMDL
MODEL 7
REMARK VINA RESULT:      -8.0      7.001      8.650
REMARK  3 active torsions:
REMARK  status: ('A' for Active; 'I' for Inactive)
REMARK       I    between atoms: C2_2  and  O3_16 
REMARK       I    between atoms: C12_13  and  O4_19 
REMARK    1  A    between atoms: O3_16  and  C15_22 
REMARK    2  A    between atoms: C15_22  and  C16_24 
REMARK       I    between atoms: O4_19  and  C19_20 
REMARK    3  A    between atoms: C19_20  and  C20_30 
ROOT
ATOM      1  C1  non d ame      19.474  22.475  53.938  0.00  0.00     0.017 C 
ATOM      2  C2  non d ame      18.765  21.248  53.931  0.00  0.00     0.004 C 
ATOM      3  C3  non d ame      17.676  21.079  53.058  0.00  0.00     0.035 C 
ATOM      4  C4  non d ame      17.359  22.064  52.111  0.00  0.00     0.027 C 
ATOM      5  C5  non d ame      18.133  23.246  51.984  0.00  0.00    -0.013 A 
ATOM      6  C6  non d ame      19.171  23.437  52.940  0.00  0.00     0.019 A 
ATOM      7  C7  non d ame      17.926  24.251  50.985  0.00  0.00     0.003 A 
ATOM      8  C8  non d ame      18.724  25.435  51.003  0.00  0.00     0.009 A 
ATOM      9  C9  non d ame      19.724  25.570  51.989  0.00  0.00     0.107 A 
ATOM     10  O1  non d ame      19.905  24.582  52.897  0.00  0.00    -0.147 OA
ATOM     11  C10 non d ame      16.963  24.137  49.943  0.00  0.00     0.038 A 
ATOM     12  C11 non d ame      16.733  25.164  48.997  0.00  0.00     0.003 A 
ATOM     13  C12 non d ame      17.475  26.362  49.105  0.00  0.00     0.012 A 
ATOM     14  C13 non d ame      18.502  26.462  50.060  0.00  0.00     0.093 A 
ATOM     15  O2  non d ame      20.474  26.568  52.084  0.00  0.00    -0.254 OA
ATOM     16  O3  non d ame      19.090  20.202  54.759  0.00  0.00    -0.266 OA
ATOM     17  C14 non d ame      20.513  22.749  54.967  0.00  0.00     0.107 C 
ATOM     18  C18 non d ame      15.708  24.979  47.937  0.00  0.00     0.098 C 
ATOM     19  O4  non d ame      17.229  27.452  48.306  0.00  0.00    -0.266 OA
ATOM     20  C19 non d ame      16.164  28.320  48.777  0.00  0.00     0.189 C 
ATOM     21  C21 non d ame      16.487  29.048  50.111  0.00  0.00     0.047 C 
ENDROOT
BRANCH  16  22
ATOM     22  C15 non d ame      20.122  19.312  54.257  0.00  0.00     0.189 C 
ATOM     23  C17 non d ame      19.584  18.115  53.423  0.00  0.00     0.047 C 
BRANCH  22  24
ATOM     24  C16 non d ame      20.873  18.804  55.423  0.00  0.00     0.060 A 
ATOM     25  N1  non d ame      20.398  18.009  56.391  0.00  0.00    -0.105 NA
ATOM     26  N2  non d ame      21.368  17.824  57.229  0.00  0.00    -0.082 NA
ATOM     27  N3  non d ame      22.429  18.459  56.839  0.00  0.00    -0.166 NA
ATOM     28  N4  non d ame      22.146  19.065  55.735  0.00  0.00     0.064 N 
ATOM     29  H12 non d ame      22.798  19.634  55.216  0.00  0.00     0.179 HD
ENDBRANCH  22  24
ENDBRANCH  16  22
BRANCH  20  30
ATOM     30  C20 non d ame      15.877  29.314  47.723  0.00  0.00     0.060 A 
ATOM     31  N5  non d ame      15.300  29.063  46.545  0.00  0.00     0.064 N 
ATOM     32  N6  non d ame      15.195  30.171  45.896  0.00  0.00    -0.166 NA
ATOM     33  H20 non d ame      14.989  28.167  46.196  0.00  0.00     0.179 HD
ATOM     34  N7  non d ame      15.692  31.115  46.634  0.00  0.00    -0.082 NA
ATOM     35  N8  non d ame      16.119  30.631  47.757  0.00  0.00    -0.105 NA
ENDBRANCH  20  30
TORSDOF 6
ENDMDL
MODEL 8
REMARK VINA RESULT:      -7.8      7.926     10.229
REMARK  3 active torsions:
REMARK  status: ('A' for Active; 'I' for Inactive)
REMARK       I    between atoms: C2_2  and  O3_16 
REMARK       I    between atoms: C12_13  and  O4_19 
REMARK    1  A    between atoms: O3_16  and  C15_22 
REMARK    2  A    between atoms: C15_22  and  C16_24 
REMARK       I    between atoms: O4_19  and  C19_20 
REMARK    3  A    between atoms: C19_20  and  C20_30 
ROOT
ATOM      1  C1  non d ame      28.817  28.061  45.066  0.00  0.00     0.017 C 
ATOM      2  C2  non d ame      28.120  26.939  44.554  0.00  0.00     0.004 C 
ATOM      3  C3  non d ame      26.975  26.468  45.219  0.00  0.00     0.035 C 
ATOM      4  C4  non d ame      26.445  27.168  46.313  0.00  0.00     0.027 C 
ATOM      5  C5  non d ame      27.026  28.378  46.770  0.00  0.00    -0.013 A 
ATOM      6  C6  non d ame      28.238  28.784  46.141  0.00  0.00     0.019 A 
ATOM      7  C7  non d ame      26.491  29.193  47.819  0.00  0.00     0.003 A 
ATOM      8  C8  non d ame      27.207  30.354  48.242  0.00  0.00     0.009 A 
ATOM      9  C9  non d ame      28.410  30.690  47.589  0.00  0.00     0.107 A 
ATOM     10  O1  non d ame      28.865  29.908  46.581  0.00  0.00    -0.147 OA
ATOM     11  C10 non d ame      25.257  28.920  48.474  0.00  0.00     0.038 A 
ATOM     12  C11 non d ame      24.770  29.704  49.547  0.00  0.00     0.003 A 
ATOM     13  C12 non d ame      25.552  30.789  50.002  0.00  0.00     0.012 A 
ATOM     14  C13 non d ame      26.725  31.143  49.310  0.00  0.00     0.093 A 
ATOM     15  O2  non d ame      29.106  31.689  47.885  0.00  0.00    -0.254 OA
ATOM     16  O3  non d ame      28.525  26.270  43.425  0.00  0.00    -0.266 OA
ATOM     17  C14 non d ame      30.125  28.475  44.490  0.00  0.00     0.107 C 
ATOM     18  C18 non d ame      23.474  29.360  50.188  0.00  0.00     0.098 C 
ATOM     19  O4  non d ame      25.214  31.524  51.112  0.00  0.00    -0.266 OA
ATOM     20  C19 non d ame      25.655  30.954  52.373  0.00  0.00     0.189 C 
ATOM     21  C21 non d ame      27.199  30.925  52.546  0.00  0.00     0.047 C 
ENDROOT
BRANCH  16  22
ATOM     22  C15 non d ame      28.038  26.820  42.172  0.00  0.00     0.189 C 
ATOM     23  C17 non d ame      27.102  28.051  42.334  0.00  0.00     0.047 C 
BRANCH  22  24
ATOM     24  C16 non d ame      27.316  25.741  41.466  0.00  0.00     0.060 A 
ATOM     25  N1  non d ame      27.699  25.137  40.333  0.00  0.00    -0.105 NA
ATOM     26  N2  non d ame      26.777  24.276  40.042  0.00  0.00    -0.082 NA
ATOM     27  N3  non d ame      25.835  24.304  40.933  0.00  0.00    -0.166 NA
ATOM     28  N4  non d ame      26.147  25.195  41.813  0.00  0.00     0.064 N 
ATOM     29  H12 non d ame      25.583  25.420  42.618  0.00  0.00     0.179 HD
ENDBRANCH  22  24
ENDBRANCH  16  22
BRANCH  20  30
ATOM     30  C20 non d ame      25.045  31.730  53.471  0.00  0.00     0.060 A 
ATOM     31  N5  non d ame      25.705  32.418  54.406  0.00  0.00     0.064 N 
ATOM     32  N6  non d ame      24.846  32.980  55.184  0.00  0.00    -0.166 NA
ATOM     33  H20 non d ame      26.707  32.500  54.510  0.00  0.00     0.179 HD
ATOM     34  N7  non d ame      23.660  32.664  54.765  0.00  0.00    -0.082 NA
ATOM     35  N8  non d ame      23.740  31.902  53.721  0.00  0.00    -0.105 NA
ENDBRANCH  20  30
TORSDOF 6
ENDMDL
MODEL 9
REMARK VINA RESULT:      -7.7      7.052      8.811
REMARK  3 active torsions:
REMARK  status: ('A' for Active; 'I' for Inactive)
REMARK       I    between atoms: C2_2  and  O3_16 
REMARK       I    between atoms: C12_13  and  O4_19 
REMARK    1  A    between atoms: O3_16  and  C15_22 
REMARK    2  A    between atoms: C15_22  and  C16_24 
REMARK       I    between atoms: O4_19  and  C19_20 
REMARK    3  A    between atoms: C19_20  and  C20_30 
ROOT
ATOM      1  C1  non d ame      19.643  22.041  54.916  0.00  0.00     0.017 C 
ATOM      2  C2  non d ame      19.315  20.685  54.673  0.00  0.00     0.004 C 
ATOM      3  C3  non d ame      18.529  20.349  53.556  0.00  0.00     0.035 C 
ATOM      4  C4  non d ame      18.168  21.325  52.616  0.00  0.00     0.027 C 
ATOM      5  C5  non d ame      18.598  22.670  52.742  0.00  0.00    -0.013 A 
ATOM      6  C6  non d ame      19.313  23.005  53.928  0.00  0.00     0.019 A 
ATOM      7  C7  non d ame      18.346  23.699  51.779  0.00  0.00     0.003 A 
ATOM      8  C8  non d ame      18.767  25.036  52.052  0.00  0.00     0.009 A 
ATOM      9  C9  non d ame      19.454  25.304  53.254  0.00  0.00     0.107 A 
ATOM     10  O1  non d ame      19.698  24.295  54.124  0.00  0.00    -0.147 OA
ATOM     11  C10 non d ame      17.700  23.467  50.532  0.00  0.00     0.038 A 
ATOM     12  C11 non d ame      17.409  24.506  49.616  0.00  0.00     0.003 A 
ATOM     13  C12 non d ame      17.754  25.831  49.963  0.00  0.00     0.012 A 
ATOM     14  C13 non d ame      18.483  26.077  51.140  0.00  0.00     0.093 A 
ATOM     15  O2  non d ame      19.865  26.441  53.580  0.00  0.00    -0.254 OA
ATOM     16  O3  non d ame      19.725  19.666  55.497  0.00  0.00    -0.266 OA
ATOM     17  C14 non d ame      20.320  22.448  56.177  0.00  0.00     0.107 C 
ATOM     18  C18 non d ame      16.727  24.192  48.333  0.00  0.00     0.098 C 
ATOM     19  O4  non d ame      17.399  26.909  49.189  0.00  0.00    -0.266 OA
ATOM     20  C19 non d ame      16.062  27.419  49.437  0.00  0.00     0.189 C 
ATOM     21  C21 non d ame      15.877  28.045  50.847  0.00  0.00     0.047 C 
ENDROOT
BRANCH  16  22
ATOM     22  C15 non d ame      21.044  19.130  55.208  0.00  0.00     0.189 C 
ATOM     23  C17 non d ame      21.927  20.048  54.316  0.00  0.00     0.047 C 
BRANCH  22  24
ATOM     24  C16 non d ame      20.856  17.826  54.541  0.00  0.00     0.060 A 
ATOM     25  N1  non d ame      21.338  17.468  53.343  0.00  0.00    -0.105 NA
ATOM     26  N2  non d ame      20.922  16.262  53.121  0.00  0.00    -0.082 NA
ATOM     27  N3  non d ame      20.205  15.841  54.117  0.00  0.00    -0.166 NA
ATOM     28  N4  non d ame      20.153  16.784  54.995  0.00  0.00     0.064 N 
ATOM     29  H12 non d ame      19.656  16.717  55.871  0.00  0.00     0.179 HD
ENDBRANCH  22  24
ENDBRANCH  16  22
BRANCH  20  30
ATOM     30  C20 non d ame      15.749  28.424  48.401  0.00  0.00     0.060 A 
ATOM     31  N5  non d ame      15.678  28.198  47.086  0.00  0.00     0.064 N 
ATOM     32  N6  non d ame      15.366  29.301  46.498  0.00  0.00    -0.166 NA
ATOM     33  H20 non d ame      15.837  27.322  46.608  0.00  0.00     0.179 HD
ATOM     34  N7  non d ame      15.239  30.217  47.408  0.00  0.00    -0.082 NA
ATOM     35  N8  non d ame      15.465  29.721  48.581  0.00  0.00    -0.105 NA
ENDBRANCH  20  30
TORSDOF 6
ENDMDL
